 //List of standardized conductor values.  Use at your
 //own discretion -- may not agree with some published
 //values.

 //Note:  This file will not do anything on its own.
 //       Use it only as a reference or an "include" file.

module powerflow;
//AV_SP_one2three_GLM
object underground_line_conductor {
	name AG_1000CUEPR;
	outer_diameter 1.6600 in;
	conductor_gmr 0.0393 ft;
	conductor_diameter 1.117 in;
	conductor_resistance 0.088 ohm/kft;
	neutral_gmr 0.0037 ft;
	neutral_resistance 4.6758 ohm/kft;
	neutral_diameter 0.1144 in;
	neutral_strands 26.0000;
	shield_gmr 0.0000 ft;
	shield_resistance 0.0000 Ohm/mile;
}

object underground_line_conductor {
	name AG_750CN15;
	outer_diameter 1.4830 in;
	conductor_gmr 0.0308 ft;
	conductor_diameter 0.963 in;
	conductor_resistance 0.0947 ohm/kft;
	neutral_gmr 0.0033 ft;
	neutral_resistance 5.9026 ohm/kft;
	neutral_diameter 0.1019 in;
	neutral_strands 25.0000;
	shield_gmr 0.0000 ft;
	shield_resistance 0.0000 Ohm/mile;
}

object underground_line_conductor {
	name AG_750CUEPR_4RUNS;
	outer_diameter 1.4830 in;
	conductor_gmr 0.0308 ft;
	conductor_diameter 0.629 in;
	conductor_resistance 0.0947 ohm/kft;
	neutral_gmr 0.0033 ft;
	neutral_resistance 5.9026 ohm/kft;
	neutral_diameter 0.1019 in;
	neutral_strands 25.0000;
	shield_gmr 0.0000 ft;
	shield_resistance 0.0000 Ohm/mile;
}

object underground_line_conductor {
	name AG_750CUXLP;
	outer_diameter 2.5 in;
	conductor_gmr 0.0308 ft;
	conductor_diameter 1.059 in;
	conductor_resistance 0.0947 ohm/kft;
	neutral_gmr 0 ft;
	neutral_resistance 0 ohm/kft;
	neutral_diameter 0 in;
	neutral_strands 0;
	shield_gmr 0.07808 ft;
	shield_resistance 2.704 Ohm/mile;
}

object underground_line_conductor {
	name AG_1_0CN15;
	outer_diameter 0.8930 in;
	conductor_gmr 0.0111 ft;
	conductor_diameter 0.3680 in;
	conductor_resistance 0.6070 ohm/kft;
	neutral_gmr 0.0021 ft;
	neutral_resistance 14.8722 ohm/kft;
	neutral_diameter 0.0641 in;
	neutral_strands 15.0000;
	shield_gmr 0.0000 ft;
	shield_resistance 0.0000 Ohm/mile;
}

object underground_line_conductor {
	name AG_1_0CN25;
	outer_diameter 0.8380 in;
	conductor_gmr 0.0111 ft;
	conductor_diameter 0.3680 in;
	conductor_resistance 0.6070 ohm/kft;
	neutral_gmr 0.0021 ft;
	neutral_resistance 14.8722 ohm/kft;
	neutral_diameter 0.0641 in;
	neutral_strands 25.0000;
	shield_gmr 0.0000 ft;
	shield_resistance 0.0000 Ohm/mile;
}


object underground_line_conductor {
	name AG_2CN15;
	outer_diameter 0.7330 in;
	conductor_gmr 0.0084 ft;
	conductor_diameter 0.2580 in;
	conductor_resistance 0.9450 ohm/kft;
	neutral_gmr 0.0021 ft;
	neutral_resistance 14.8722 ohm/kft;
	neutral_diameter 0.0641 in;
	neutral_strands 15.0000;
	shield_gmr 0.0000 ft;
	shield_resistance 0.0000 Ohm/mile;
}

object underground_line_conductor {
	name AG_UNK;
	outer_diameter 1.4830 in;
	conductor_gmr 0.0308 ft;
	conductor_diameter 0.9630 in;
	conductor_resistance 0.0947 ohm/kft;
	neutral_gmr 0.0033 ft;
	neutral_resistance 5.9026 ohm/kft;
	neutral_diameter 0.1019 in;
	neutral_strands 25.0000;
	shield_gmr 0.0000 ft;
	shield_resistance 0.0000 Ohm/mile;
}

//DG_GLM
object underground_line_conductor {
    name "DG_1_0ALTRXLPECN15";
    rating.summer.continuous 235 A;
    outer_diameter 0.408 in;
    conductor_gmr 0.0071 ft;
    conductor_diameter 0.398 in;
    conductor_resistance 0.2169 ohm/kft;
    neutral_gmr 0.0132 ft;
    neutral_resistance 2.3057 ohm/kft;
    neutral_diameter 0.0254 in;
    neutral_strands 7;
    shield_gmr 0.00 ft;
     
}

object underground_line_conductor {
    name "DG_1_0ALTRXLPECNJ15";
    rating.summer.continuous 235 A;
    outer_diameter 0.408 in;
    conductor_gmr 0.0071 ft;
    conductor_diameter 0.398 in;
    conductor_resistance 0.2169 ohm/kft;
    neutral_gmr 0.0132 ft;
    neutral_resistance 2.3057 ohm/kft;
    neutral_diameter 0.0254 in;
    neutral_strands 7;
    shield_gmr 0.00 ft;
    
}

object underground_line_conductor {
    name "DG_1_0ALTRXLPECNJ35";
    rating.summer.continuous 221 A;
    outer_diameter 0.408 in;
    conductor_gmr 0.0071 ft;
    conductor_diameter 0.398 in;
    conductor_resistance 0.2169 ohm/kft;
    neutral_gmr 0.0132 ft;
    neutral_resistance 2.3057 ohm/kft;
    neutral_diameter 0.0254 in;
    neutral_strands 7;
    shield_gmr 0.00 ft;
    
}

object underground_line_conductor {
    name "DG_1_0ALTRXLPELCJ15";
    rating.summer.continuous 235 A;
    outer_diameter 0.408 in;
    conductor_gmr 0.0071 ft;
    conductor_diameter 0.398 in;
    conductor_resistance 0.2169 ohm/kft;
    neutral_gmr 0.0132 ft;
    neutral_resistance 2.3057 ohm/kft;
    neutral_diameter 0.0254 in;
    neutral_strands 7;
    shield_gmr 0.00 ft;
    
}

object underground_line_conductor {
    name "DG_1_0ALXLPECN15";
    rating.summer.continuous 235 A;
    outer_diameter 0.408 in;
    conductor_gmr 0.0071 ft;
    conductor_diameter 0.398 in;
    conductor_resistance 0.2169 ohm/kft;
    neutral_gmr 0.0132 ft;
    neutral_resistance 2.3057 ohm/kft;
    neutral_diameter 0.0254 in;
    neutral_strands 7;
    shield_gmr 0.00 ft;
    
}

object underground_line_conductor {
    name "DG_1_0ALXLPECN25";
    rating.summer.continuous 221 A;
    outer_diameter 0.408 in;
    conductor_gmr 0.0071 ft;
    conductor_diameter 0.398 in;
    conductor_resistance 0.2169 ohm/kft;
    neutral_gmr 0.0132 ft;
    neutral_resistance 2.3057 ohm/kft;
    neutral_diameter 0.0254 in;
    neutral_strands 7;
    shield_gmr 0.00 ft;
    
}

object underground_line_conductor {
    name "DG_1_0TRXLPELCJ15";
    rating.summer.continuous 235 A;
    outer_diameter 0.408 in;
    conductor_gmr 0.0071 ft;
    conductor_diameter 0.398 in;
    conductor_resistance 0.2169 ohm/kft;
    neutral_gmr 0.0132 ft;
    neutral_resistance 2.3057 ohm/kft;
    neutral_diameter 0.0254 in;
    neutral_strands 7;
    shield_gmr 0.00 ft;
    
}

object underground_line_conductor {
    name "DG_1_0TRXLPELCJ25";
    rating.summer.continuous 221 A;
    outer_diameter 0.408 in;
    conductor_gmr 0.0071 ft;
    conductor_diameter 0.398 in;
    conductor_resistance 0.2169 ohm/kft;
    neutral_gmr 0.0132 ft;
    neutral_resistance 2.3057 ohm/kft;
    neutral_diameter 0.0254 in;
    neutral_strands 7;
    shield_gmr 0.00 ft;
    
}

object underground_line_conductor {
    name "DG_1000ALTRXLPEJ15";
    rating.summer.continuous 725 A;
    outer_diameter 1.175 in;
    conductor_gmr 0.0395 ft;
    conductor_diameter 1.165 in;
    conductor_resistance 0.0141 ohm/kft;
    neutral_gmr 0.0132 ft;
    neutral_resistance 2.3057 ohm/kft;
    neutral_diameter 0.0254 in;
    neutral_strands 7;
    shield_gmr 0.00 ft;
    
}

object underground_line_conductor {
    name "DG_1000ALTRXLPELCJ15";
    rating.summer.continuous 725 A;
    outer_diameter 1.175 in;
    conductor_gmr 0.0395 ft;
    conductor_diameter 1.165 in;
    conductor_resistance 0.0141 ohm/kft;
    neutral_gmr 0.0132 ft;
    neutral_resistance 2.3057 ohm/kft;
    neutral_diameter 0.0254 in;
    neutral_strands 7;
    shield_gmr 0.00 ft;
    
}

object underground_line_conductor {
    name "DG_1000ALTRXLPELCJ25";
    rating.summer.continuous 700 A;
    outer_diameter 1.175 in;
    conductor_gmr 0.0395 ft;
    conductor_diameter 1.165 in;
    conductor_resistance 0.0141 ohm/kft;
    neutral_gmr 0.0132 ft;
    neutral_resistance 2.3057 ohm/kft;
    neutral_diameter 0.0254 in;
    neutral_strands 7;
    shield_gmr 0.00 ft;
    
}

object underground_line_conductor {
    name "DG_2_0CUB7SD";
    rating.summer.continuous 245 A;
    outer_diameter 0.457 in;
    conductor_gmr 0.0077 ft;
    conductor_diameter 0.447 in;
    conductor_resistance 0.1765 ohm/kft;
    neutral_gmr 0.0132 ft;
    neutral_resistance 2.3057 ohm/kft;
    neutral_diameter 0.0254 in;
    neutral_strands 7;
    shield_gmr 0.00 ft;
    
}

object underground_line_conductor {
    name "DG_2ALTRXLPECNJ15";
    rating.summer.continuous 165 A;
    outer_diameter 0.326 in;
    conductor_gmr 0.0046 ft;
    conductor_diameter 0.316 in;
    conductor_resistance 0.332 ohm/kft;
    neutral_gmr 0.0132 ft;
    neutral_resistance 2.3057 ohm/kft;
    neutral_diameter 0.0254 in;
    neutral_strands 7;
    shield_gmr 0.00 ft;
    
}

object underground_line_conductor {
    name "DG_2ALXLPECN15";
    rating.summer.continuous 165 A;
    outer_diameter 0.326 in;
    conductor_gmr 0.0046 ft;
    conductor_diameter 0.316 in;
    conductor_resistance 0.332 ohm/kft;
    neutral_gmr 0.0132 ft;
    neutral_resistance 2.3057 ohm/kft;
    neutral_diameter 0.0254 in;
    neutral_strands 7;
    shield_gmr 0.00 ft;
    
}

object underground_line_conductor {
    name "DG_350ALTRXLPELC15";
    rating.summer.continuous 405 A;
    outer_diameter 0.689 in;
    conductor_gmr 0.0215 ft;
    conductor_diameter 0.679 in;
    conductor_resistance 0.0605 ohm/kft;
    neutral_gmr 0.0132 ft;
    neutral_resistance 2.3057 ohm/kft;
    neutral_diameter 0.0254 in;
    neutral_strands 7;
    shield_gmr 0.00 ft;
    
}

object underground_line_conductor {
    name "DG_350ALTRXLPELCJ15";
    rating.summer.continuous 421 A;
    outer_diameter 0.689 in;
    conductor_gmr 0.0215 ft;
    conductor_diameter 0.679 in;
    conductor_resistance 0.0605 ohm/kft;
    neutral_gmr 0.0132 ft;
    neutral_resistance 2.3057 ohm/kft;
    neutral_diameter 0.0254 in;
    neutral_strands 7;
    shield_gmr 0.00 ft;
    
}

object underground_line_conductor {
    name "DG_350ALTRXLPELCJ25";
    rating.summer.continuous 421 A;
    outer_diameter 0.689 in;
    conductor_gmr 0.0215 ft;
    conductor_diameter 0.679 in;
    conductor_resistance 0.0605 ohm/kft;
    neutral_gmr 0.0132 ft;
    neutral_resistance 2.3057 ohm/kft;
    neutral_diameter 0.0254 in;
    neutral_strands 7;
    shield_gmr 0.00 ft;
    
}

object underground_line_conductor {
    name "DG_4_0ALTRXLPECNJ15";
    rating.summer.continuous 320 A;
    outer_diameter 0.573 in;
    conductor_gmr 0.0105 ft;
    conductor_diameter 0.563 in;
    conductor_resistance 0.1189 ohm/kft;
    neutral_gmr 0.0132 ft;
    neutral_resistance 2.3057 ohm/kft;
    neutral_diameter 0.0254 in;
    neutral_strands 8;
    shield_gmr 0.00 ft;
    
}

object underground_line_conductor {
    name "DG_4_0CUB7SD";
    rating.summer.continuous 320 A;
    outer_diameter 0.5618 in;
    conductor_gmr 0.0175 ft;
    conductor_diameter 0.5518 in;
    conductor_resistance 0.063 ohm/kft;
    neutral_gmr 0.0132 ft;
    neutral_resistance 2.3057 ohm/kft;
    neutral_diameter 0.0254 in;
    neutral_strands 8;
    shield_gmr 0.00 ft;
    
}

object underground_line_conductor {
    name "DG_4_0CURRUG";
    rating.summer.continuous 320 A;
    outer_diameter 0.5618 in;
    conductor_gmr 0.0175 ft;
    conductor_diameter 0.5518 in;
    conductor_resistance 0.063 ohm/kft;
    neutral_gmr 0.0132 ft;
    neutral_resistance 2.3057 ohm/kft;
    neutral_diameter 0.0254 in;
    neutral_strands 8;
    shield_gmr 0.00 ft;
    
}

object underground_line_conductor {
    name "DG_750ALTRXLPELCJ15";
    rating.summer.continuous 630 A;
    outer_diameter 1.118 in;
    conductor_gmr 0.0373 ft;
    conductor_diameter 1.108 in;
    conductor_resistance 0.0263 ohm/kft;
    neutral_gmr 0.0132 ft;
    neutral_resistance 2.3057 ohm/kft;
    neutral_diameter 0.0254 in;
    neutral_strands 8;
    shield_gmr 0.00 ft;
    
}

object underground_line_conductor {
    name "DG_750ALTRXLPELCJ25";
    rating.summer.continuous 608 A;
    outer_diameter 1.118 in;
    conductor_gmr 0.0373 ft;
    conductor_diameter 1.108 in;
    conductor_resistance 0.0263 ohm/kft;
    neutral_gmr 0.0132 ft;
    neutral_resistance 2.3057 ohm/kft;
    neutral_diameter 0.0254 in;
    neutral_strands 8;
    shield_gmr 0.00 ft;
    
}

object underground_line_conductor {
    name "DG_750CUEPRJD15";
    rating.summer.continuous 630 A;
    outer_diameter 1.102 in;
    conductor_gmr 0.0325 ft;
    conductor_diameter 1.092 in;
    conductor_resistance 0.0183 ohm/kft;
    neutral_gmr 0.0132 ft;
    neutral_resistance 2.3057 ohm/kft;
    neutral_diameter 0.0254 in;
    neutral_strands 8;
    shield_gmr 0.00 ft;
    
}

object underground_line_conductor {
    name "DG_1_0";
    rating.summer.continuous 235 A;
    outer_diameter 0.408 in;
    conductor_gmr 0.0071 ft;
    conductor_diameter 0.398 in;
    conductor_resistance 0.2169 ohm/kft;
    neutral_gmr 0.0132 ft;
    neutral_resistance 2.3057 ohm/kft;
    neutral_diameter 0.0254 in;
    neutral_strands 7;
    shield_gmr 0.00 ft;
    
}

object underground_line_conductor {
    name "DG_2";
    rating.summer.continuous 165 A;
    outer_diameter 0.326 in;
    conductor_gmr 0.0046 ft;
    conductor_diameter 0.316 in;
    conductor_resistance 0.332 ohm/kft;
    neutral_gmr 0.0132 ft;
    neutral_resistance 2.3057 ohm/kft;
    neutral_diameter 0.0254 in;
    neutral_strands 9;
    shield_gmr 0.00 ft;
    
}

object underground_line_conductor {
    name "DG_1000";
    rating.summer.continuous 725 A;
    outer_diameter 1.175 in;
    conductor_gmr 0.0395 ft;
    conductor_diameter 1.165 in;
    conductor_resistance 0.0141 ohm/kft;
    neutral_gmr 0.0132 ft;
    neutral_resistance 2.3057 ohm/kft;
    neutral_diameter 0.0254 in;
    neutral_strands 9;
    shield_gmr 0.00 ft;
    
}

object underground_line_conductor {
    name "DG_2_0";
    rating.summer.continuous 245 A;
    outer_diameter 0.457 in;
    conductor_gmr 0.0077 ft;
    conductor_diameter 0.447 in;
    conductor_resistance 0.1765 ohm/kft;
    neutral_gmr 0.0132 ft;
    neutral_resistance 2.3057 ohm/kft;
    neutral_diameter 0.0254 in;
    neutral_strands 9;
    shield_gmr 0.00 ft;
    
}

object underground_line_conductor {
    name "DG_350";
    rating.summer.continuous 421 A;
    outer_diameter 0.689 in;
    conductor_gmr 0.0215 ft;
    conductor_diameter 0.679 in;
    conductor_resistance 0.0605 ohm/kft;
    neutral_gmr 0.0132 ft;
    neutral_resistance 2.3057 ohm/kft;
    neutral_diameter 0.0254 in;
    neutral_strands 9;
    shield_gmr 0.00 ft;
    
}

object underground_line_conductor {
    name "DG_4_0";
    rating.summer.continuous 320 A;
    outer_diameter 0.573 in;
    conductor_gmr 0.0105 ft;
    conductor_diameter 0.563 in;
    conductor_resistance 0.1189 ohm/kft;
    neutral_gmr 0.0132 ft;
    neutral_resistance 2.3057 ohm/kft;
    neutral_diameter 0.0254 in;
    neutral_strands 9;
    shield_gmr 0.00 ft;
    
}

object underground_line_conductor {
    name "DG_750";
    rating.summer.continuous 630 A;
    outer_diameter 1.118 in;
    conductor_gmr 0.0373 ft;
    conductor_diameter 1.108 in;
    conductor_resistance 0.0263 ohm/kft;
    neutral_gmr 0.0132 ft;
    neutral_resistance 2.3057 ohm/kft;
    neutral_diameter 0.0254 in;
    neutral_strands 9;
    shield_gmr 0.00 ft;
    
}

object underground_line_conductor {
    name "DG_1_0ALEPRCN35";
    rating.summer.continuous 235 A;
    outer_diameter 0.408 in;
    conductor_gmr 0.0071 ft;
    conductor_diameter 0.398 in;
    conductor_resistance 0.2169 ohm/kft;
    neutral_gmr 0.0132 ft;
    neutral_resistance 2.3057 ohm/kft;
    neutral_diameter 0.0254 in;
    neutral_strands 7;
    shield_gmr 0.00 ft;
    
}

object underground_line_conductor {
    name "DG_1_0ALEPRCNJ25";
    rating.summer.continuous 235 A;
    outer_diameter 0.408 in;
    conductor_gmr 0.0071 ft;
    conductor_diameter 0.398 in;
    conductor_resistance 0.2169 ohm/kft;
    neutral_gmr 0.0132 ft;
    neutral_resistance 2.3057 ohm/kft;
    neutral_diameter 0.0254 in;
    neutral_strands 7;
    shield_gmr 0.00 ft;
    
}

object underground_line_conductor {
    name "DG_1_0ALEPRCNJ15";
    rating.summer.continuous 235 A;
    outer_diameter 0.408 in;
    conductor_gmr 0.0071 ft;
    conductor_diameter 0.398 in;
    conductor_resistance 0.2169 ohm/kft;
    neutral_gmr 0.0132 ft;
    neutral_resistance 2.3057 ohm/kft;
    neutral_diameter 0.0254 in;
    neutral_strands 7;
    shield_gmr 0.00 ft;
    
}

object underground_line_conductor {
    name "DG_1_0ALHMWPECN15";
    rating.summer.continuous 235 A;
    outer_diameter 0.408 in;
    conductor_gmr 0.0071 ft;
    conductor_diameter 0.398 in;
    conductor_resistance 0.2169 ohm/kft;
    neutral_gmr 0.0132 ft;
    neutral_resistance 2.3057 ohm/kft;
    neutral_diameter 0.0254 in;
    neutral_strands 7;
    shield_gmr 0.00 ft;
    
}

object underground_line_conductor {
    name "DG_1_0ALTRXLPECNJAC35";
    rating.summer.continuous 221 A;
    outer_diameter 0.408 in;
    conductor_gmr 0.0071 ft;
    conductor_diameter 0.398 in;
    conductor_resistance 0.2169 ohm/kft;
    neutral_gmr 0.0132 ft;
    neutral_resistance 2.3057 ohm/kft;
    neutral_diameter 0.0254 in;
    neutral_strands 7;
    shield_gmr 0.00 ft;
    
}

object underground_line_conductor {
    name "DG_1_0ALTRXLPELCJAC15";
    rating.summer.continuous 235 A;
    outer_diameter 0.408 in;
    conductor_gmr 0.0071 ft;
    conductor_diameter 0.398 in;
    conductor_resistance 0.2169 ohm/kft;
    neutral_gmr 0.0132 ft;
    neutral_resistance 2.3057 ohm/kft;
    neutral_diameter 0.0254 in;
    neutral_strands 7;
    shield_gmr 0.00 ft;
    
}

object underground_line_conductor {
    name "DG_1_0ALTRXPECNJ15";
    rating.summer.continuous 235 A;
    outer_diameter 0.408 in;
    conductor_gmr 0.0071 ft;
    conductor_diameter 0.398 in;
    conductor_resistance 0.2169 ohm/kft;
    neutral_gmr 0.0132 ft;
    neutral_resistance 2.3057 ohm/kft;
    neutral_diameter 0.0254 in;
    neutral_strands 7;
    shield_gmr 0.00 ft;
    
}

object underground_line_conductor {
    name "DG_1_0ALXLPECN35";
    rating.summer.continuous 235 A;
    outer_diameter 0.408 in;
    conductor_gmr 0.0071 ft;
    conductor_diameter 0.398 in;
    conductor_resistance 0.2169 ohm/kft;
    neutral_gmr 0.0132 ft;
    neutral_resistance 2.3057 ohm/kft;
    neutral_diameter 0.0254 in;
    neutral_strands 7;
    shield_gmr 0.00 ft;
    
}

object underground_line_conductor {
    name "DG_1_0ALHMWPECN25";
    rating.summer.continuous 221 A;
    outer_diameter 0.408 in;
    conductor_gmr 0.0071 ft;
    conductor_diameter 0.398 in;
    conductor_resistance 0.2169 ohm/kft;
    neutral_gmr 0.0132 ft;
    neutral_resistance 2.3057 ohm/kft;
    neutral_diameter 0.0254 in;
    neutral_strands 7;
    shield_gmr 0.00 ft;
    
}

object underground_line_conductor {
    name "DG_1000AL15KVUG";
    rating.summer.continuous 725 A;
    outer_diameter 1.175 in;
    conductor_gmr 0.0395 ft;
    conductor_diameter 1.165 in;
    conductor_resistance 0.0141 ohm/kft;
    neutral_gmr 0.0132 ft;
    neutral_resistance 2.3057 ohm/kft;
    neutral_diameter 0.0254 in;
    neutral_strands 7;
    shield_gmr 0.00 ft;
    
}

object underground_line_conductor {
    name "DG_1000ALXLPEDWJ25";
    rating.summer.continuous 700 A;
    outer_diameter 1.175 in;
    conductor_gmr 0.0395 ft;
    conductor_diameter 1.165 in;
    conductor_resistance 0.0141 ohm/kft;
    neutral_gmr 0.0132 ft;
    neutral_resistance 2.3057 ohm/kft;
    neutral_diameter 0.0254 in;
    neutral_strands 7;
    shield_gmr 0.00 ft;
    
}

object underground_line_conductor {
    name "DG_2_0AL15KVCN";
    rating.summer.continuous 245 A;
    outer_diameter 0.457 in;
    conductor_gmr 0.0077 ft;
    conductor_diameter 0.447 in;
    conductor_resistance 0.1765 ohm/kft;
    neutral_gmr 0.0132 ft;
    neutral_resistance 2.3057 ohm/kft;
    neutral_diameter 0.0254 in;
    neutral_strands 7;
    shield_gmr 0.00 ft;
    
}

object underground_line_conductor {
    name "DG_2_0AL15KVUG";
    rating.summer.continuous 245 A;
    outer_diameter 0.457 in;
    conductor_gmr 0.0077 ft;
    conductor_diameter 0.447 in;
    conductor_resistance 0.1765 ohm/kft;
    neutral_gmr 0.0132 ft;
    neutral_resistance 2.3057 ohm/kft;
    neutral_diameter 0.0254 in;
    neutral_strands 7;
    shield_gmr 0.00 ft;
    
}

object underground_line_conductor {
    name "DG_2_0ALXLPE15";
    rating.summer.continuous 245 A;
    outer_diameter 0.457 in;
    conductor_gmr 0.0077 ft;
    conductor_diameter 0.447 in;
    conductor_resistance 0.1765 ohm/kft;
    neutral_gmr 0.0132 ft;
    neutral_resistance 2.3057 ohm/kft;
    neutral_diameter 0.0254 in;
    neutral_strands 7;
    shield_gmr 0.00 ft;
    
}

object underground_line_conductor {
    name "DG_2_0ALXLPECN15";
    rating.summer.continuous 245 A;
    outer_diameter 0.457 in;
    conductor_gmr 0.0077 ft;
    conductor_diameter 0.447 in;
    conductor_resistance 0.1765 ohm/kft;
    neutral_gmr 0.0132 ft;
    neutral_resistance 2.3057 ohm/kft;
    neutral_diameter 0.0254 in;
    neutral_strands 7;
    shield_gmr 0.00 ft;
    
}

object underground_line_conductor {
    name "DG_2_0CUPILCD35";
    rating.summer.continuous 245 A;
    outer_diameter 0.457 in;
    conductor_gmr 0.0077 ft;
    conductor_diameter 0.447 in;
    conductor_resistance 0.1765 ohm/kft;
    neutral_gmr 0.0132 ft;
    neutral_resistance 2.3057 ohm/kft;
    neutral_diameter 0.0254 in;
    neutral_strands 7;
    shield_gmr 0.00 ft;
    
}

object underground_line_conductor {
    name "DG_2_0CURR15";
    rating.summer.continuous 245 A;
    outer_diameter 0.457 in;
    conductor_gmr 0.0077 ft;
    conductor_diameter 0.447 in;
    conductor_resistance 0.1765 ohm/kft;
    neutral_gmr 0.0132 ft;
    neutral_resistance 2.3057 ohm/kft;
    neutral_diameter 0.0254 in;
    neutral_strands 7;
    shield_gmr 0.00 ft;
    
}

object underground_line_conductor {
    name "DG_2ALPECNJ15";
    rating.summer.continuous 165 A;
    outer_diameter 0.326 in;
    conductor_gmr 0.0046 ft;
    conductor_diameter 0.316 in;
    conductor_resistance 0.332 ohm/kft;
    neutral_gmr 0.0132 ft;
    neutral_resistance 2.3057 ohm/kft;
    neutral_diameter 0.0254 in;
    neutral_strands 7;
    shield_gmr 0.00 ft;
    
}

object underground_line_conductor {
    name "DG_2ALTRXLPECNJAC15";
    rating.summer.continuous 165 A;
    outer_diameter 0.326 in;
    conductor_gmr 0.0046 ft;
    conductor_diameter 0.316 in;
    conductor_resistance 0.332 ohm/kft;
    neutral_gmr 0.0132 ft;
    neutral_resistance 2.3057 ohm/kft;
    neutral_diameter 0.0254 in;
    neutral_strands 7;
    shield_gmr 0.00 ft;
    
}

object underground_line_conductor {
    name "DG_2ALHMWPECN25";
    rating.summer.continuous 165 A;
    outer_diameter 0.326 in;
    conductor_gmr 0.0046 ft;
    conductor_diameter 0.316 in;
    conductor_resistance 0.332 ohm/kft;
    neutral_gmr 0.0132 ft;
    neutral_resistance 2.3057 ohm/kft;
    neutral_diameter 0.0254 in;
    neutral_strands 7;
    shield_gmr 0.00 ft;
    
}

object underground_line_conductor {
    name "DG_2ALHMWPECN15";
    rating.summer.continuous 165 A;
    outer_diameter 0.326 in;
    conductor_gmr 0.0046 ft;
    conductor_diameter 0.316 in;
    conductor_resistance 0.332 ohm/kft;
    neutral_gmr 0.0132 ft;
    neutral_resistance 2.3057 ohm/kft;
    neutral_diameter 0.0254 in;
    neutral_strands 7;
    shield_gmr 0.00 ft;
    
}

object underground_line_conductor {
    name "DG_2ALPECN15";
    rating.summer.continuous 165 A;
    outer_diameter 0.326 in;
    conductor_gmr 0.0046 ft;
    conductor_diameter 0.316 in;
    conductor_resistance 0.332 ohm/kft;
    neutral_gmr 0.0132 ft;
    neutral_resistance 2.3057 ohm/kft;
    neutral_diameter 0.0254 in;
    neutral_strands 7;
    shield_gmr 0.00 ft;
    
}

object underground_line_conductor {
    name "DG_2ALRC";
    rating.summer.continuous 165 A;
    outer_diameter 0.326 in;
    conductor_gmr 0.0046 ft;
    conductor_diameter 0.316 in;
    conductor_resistance 0.332 ohm/kft;
    neutral_gmr 0.0132 ft;
    neutral_resistance 2.3057 ohm/kft;
    neutral_diameter 0.0254 in;
    neutral_strands 7;
    shield_gmr 0.00 ft;
    
}

object underground_line_conductor {
    name "DG_2ALTRXLPE15";
    rating.summer.continuous 165 A;
    outer_diameter 0.326 in;
    conductor_gmr 0.0046 ft;
    conductor_diameter 0.316 in;
    conductor_resistance 0.332 ohm/kft;
    neutral_gmr 0.0132 ft;
    neutral_resistance 2.3057 ohm/kft;
    neutral_diameter 0.0254 in;
    neutral_strands 7;
    shield_gmr 0.00 ft;
    
}

object underground_line_conductor {
    name "DG_2CUB7SD";
    rating.summer.continuous 165 A;
    outer_diameter 0.326 in;
    conductor_gmr 0.0046 ft;
    conductor_diameter 0.316 in;
    conductor_resistance 0.332 ohm/kft;
    neutral_gmr 0.0132 ft;
    neutral_resistance 2.3057 ohm/kft;
    neutral_diameter 0.0254 in;
    neutral_strands 7;
    shield_gmr 0.00 ft;
    
}

object underground_line_conductor {
    name "DG_2CUKER35";
    rating.summer.continuous 165 A;
    outer_diameter 0.326 in;
    conductor_gmr 0.0046 ft;
    conductor_diameter 0.316 in;
    conductor_resistance 0.332 ohm/kft;
    neutral_gmr 0.0132 ft;
    neutral_resistance 2.3057 ohm/kft;
    neutral_diameter 0.0254 in;
    neutral_strands 7;
    shield_gmr 0.00 ft;
    
}

object underground_line_conductor {
    name "DG_2CUKER15";
    rating.summer.continuous 165 A;
    outer_diameter 0.326 in;
    conductor_gmr 0.0046 ft;
    conductor_diameter 0.316 in;
    conductor_resistance 0.332 ohm/kft;
    neutral_gmr 0.0132 ft;
    neutral_resistance 2.3057 ohm/kft;
    neutral_diameter 0.0254 in;
    neutral_strands 7;
    shield_gmr 0.00 ft;
    
}

object underground_line_conductor {
    name "DG_2CUPECN15";
    rating.summer.continuous 165 A;
    outer_diameter 0.326 in;
    conductor_gmr 0.0046 ft;
    conductor_diameter 0.316 in;
    conductor_resistance 0.332 ohm/kft;
    neutral_gmr 0.0132 ft;
    neutral_resistance 2.3057 ohm/kft;
    neutral_diameter 0.0254 in;
    neutral_strands 7;
    shield_gmr 0.00 ft;
    
}

object underground_line_conductor {
    name "DG_2CUPILCJD15";
    rating.summer.continuous 165 A;
    outer_diameter 0.326 in;
    conductor_gmr 0.0046 ft;
    conductor_diameter 0.316 in;
    conductor_resistance 0.332 ohm/kft;
    neutral_gmr 0.0132 ft;
    neutral_resistance 2.3057 ohm/kft;
    neutral_diameter 0.0254 in;
    neutral_strands 7;
    shield_gmr 0.00 ft;
    
}

object underground_line_conductor {
    name "DG_2CURRUG";
    rating.summer.continuous 165 A;
    outer_diameter 0.326 in;
    conductor_gmr 0.0046 ft;
    conductor_diameter 0.316 in;
    conductor_resistance 0.332 ohm/kft;
    neutral_gmr 0.0132 ft;
    neutral_resistance 2.3057 ohm/kft;
    neutral_diameter 0.0254 in;
    neutral_strands 7;
    shield_gmr 0.00 ft;
    
}

object underground_line_conductor {
    name "DG_500ALTRXLPEJ15";
    rating.summer.continuous 421 A;
    outer_diameter 0.689 in;
    conductor_gmr 0.0215 ft;
    conductor_diameter 0.679 in;
    conductor_resistance 0.0605 ohm/kft;
    neutral_gmr 0.0132 ft;
    neutral_resistance 2.3057 ohm/kft;
    neutral_diameter 0.0254 in;
    neutral_strands 7;
    shield_gmr 0.00 ft;
    
}

object underground_line_conductor {
    name "DG_500ALXLPE15";
    rating.summer.continuous 421 A;
    outer_diameter 0.689 in;
    conductor_gmr 0.0215 ft;
    conductor_diameter 0.679 in;
    conductor_resistance 0.0605 ohm/kft;
    neutral_gmr 0.0132 ft;
    neutral_resistance 2.3057 ohm/kft;
    neutral_diameter 0.0254 in;
    neutral_strands 7;
    shield_gmr 0.00 ft;
    
}

object underground_line_conductor {
    name "DG_500CUTRXLPECNJ15";
    rating.summer.continuous 421 A;
    outer_diameter 0.689 in;
    conductor_gmr 0.0215 ft;
    conductor_diameter 0.679 in;
    conductor_resistance 0.0605 ohm/kft;
    neutral_gmr 0.0132 ft;
    neutral_resistance 2.3057 ohm/kft;
    neutral_diameter 0.0254 in;
    neutral_strands 7;
    shield_gmr 0.00 ft;
    
}

object underground_line_conductor {
    name "DG_500CUKER15";
    rating.summer.continuous 421 A;
    outer_diameter 0.689 in;
    conductor_gmr 0.0215 ft;
    conductor_diameter 0.679 in;
    conductor_resistance 0.0605 ohm/kft;
    neutral_gmr 0.0132 ft;
    neutral_resistance 2.3057 ohm/kft;
    neutral_diameter 0.0254 in;
    neutral_strands 7;
    shield_gmr 0.00 ft;
    
}

object underground_line_conductor {
    name "DG_500CUKERD5";
    rating.summer.continuous 421 A;
    outer_diameter 0.689 in;
    conductor_gmr 0.0215 ft;
    conductor_diameter 0.679 in;
    conductor_resistance 0.0605 ohm/kft;
    neutral_gmr 0.0132 ft;
    neutral_resistance 2.3057 ohm/kft;
    neutral_diameter 0.0254 in;
    neutral_strands 7;
    shield_gmr 0.00 ft;
    
}

object underground_line_conductor {
    name "DG_500CURRUG";
    rating.summer.continuous 421 A;
    outer_diameter 0.689 in;
    conductor_gmr 0.0215 ft;
    conductor_diameter 0.679 in;
    conductor_resistance 0.0605 ohm/kft;
    neutral_gmr 0.0132 ft;
    neutral_resistance 2.3057 ohm/kft;
    neutral_diameter 0.0254 in;
    neutral_strands 7;
    shield_gmr 0.00 ft;
    
}

object underground_line_conductor {
    name "DG_500CURR15";
    rating.summer.continuous 421 A;
    outer_diameter 0.689 in;
    conductor_gmr 0.0215 ft;
    conductor_diameter 0.679 in;
    conductor_resistance 0.0605 ohm/kft;
    neutral_gmr 0.0132 ft;
    neutral_resistance 2.3057 ohm/kft;
    neutral_diameter 0.0254 in;
    neutral_strands 7;
    shield_gmr 0.00 ft;
    
}
